Version 4
SHEET 1 1036 680
WIRE 336 -96 64 -96
WIRE 64 -16 64 -96
WIRE -176 32 -256 32
WIRE -16 32 -176 32
WIRE 224 64 112 64
WIRE -80 96 -256 96
WIRE -16 96 -80 96
WIRE 336 112 336 -96
WIRE -176 144 -176 32
WIRE -80 144 -80 96
WIRE -176 320 -176 224
WIRE -80 320 -80 224
WIRE 64 320 64 144
WIRE 336 320 336 192
FLAG 224 64 Out
IOPIN 224 64 Out
FLAG -256 32 InA
IOPIN -256 32 In
FLAG -256 96 InB
IOPIN -256 96 In
FLAG 336 320 0
FLAG -176 320 0
FLAG -80 320 0
FLAG 64 320 0
SYMBOL voltage 336 96 R0
WINDOW 3 39 91 Left 2
WINDOW 123 0 0 Left 0
WINDOW 39 0 0 Left 0
SYMATTR Value 1.8
SYMATTR InstName VDD
SYMBOL voltage -176 128 R0
WINDOW 3 -323 298 Left 2
WINDOW 123 0 0 Left 0
WINDOW 39 0 0 Left 0
SYMATTR Value PULSE(0 1.8 0 10n 10n 5m 10m)
SYMATTR InstName VA
SYMBOL voltage -80 128 R0
WINDOW 3 5 300 Left 2
WINDOW 123 0 0 Left 0
WINDOW 39 0 0 Left 0
SYMATTR Value PULSE(0 1.8 0 10n 10n 1m 2m)
SYMATTR InstName VB
SYMBOL And_block_20220313 48 64 R0
SYMATTR InstName X1
TEXT -80 480 Left 2 !.include mylib/CMOS180.lib
TEXT -96 -128 Left 2 ;And_block2_20220313.asc
TEXT -80 512 Left 2 !.tran 10m
