Version 4
SHEET 1 1036 680
WIRE 272 -96 64 -96
WIRE 416 -96 272 -96
WIRE 64 -16 64 -96
WIRE 272 16 272 -96
WIRE 0 32 -256 32
WIRE 224 64 144 64
WIRE 400 64 304 64
WIRE 0 96 -256 96
WIRE 64 192 64 144
WIRE 272 192 272 112
WIRE 272 192 64 192
WIRE 64 224 64 192
FLAG 400 64 Out
IOPIN 400 64 Out
FLAG -256 32 InA
IOPIN -256 32 In
FLAG -256 96 InB
IOPIN -256 96 In
FLAG 64 224 GND
IOPIN 64 224 BiDir
FLAG 416 -96 VDD
IOPIN 416 -96 In
SYMBOL Nand_block_20220305 64 80 R0
WINDOW 0 -34 -89 Bottom 2
SYMATTR InstName X1
SYMBOL NOT_block_20220313 288 64 R0
WINDOW 0 -51 -60 Bottom 2
SYMATTR InstName X2
TEXT -56 360 Left 2 !.include mylib/CMOS180.lib
TEXT -8 -128 Left 2 ;And_block_20220313.asc
TEXT -56 392 Left 2 !.tran 10m
