Version 4
SHEET 1 1500 696
WIRE 768 -272 768 -288
WIRE 1056 -240 1056 -272
WIRE 624 -224 592 -224
WIRE 688 -224 624 -224
WIRE 448 -208 448 -224
WIRE 992 -192 816 -192
WIRE 208 -160 112 -160
WIRE 336 -160 208 -160
WIRE 400 -160 336 -160
WIRE 688 -160 480 -160
WIRE 1248 -160 1104 -160
WIRE 624 -128 624 -224
WIRE 992 -128 928 -128
WIRE 208 -112 208 -160
WIRE 448 -80 448 -112
WIRE 768 -80 768 -112
WIRE 1056 -48 1056 -80
WIRE 624 -16 624 -48
WIRE 208 0 208 -32
WIRE 768 64 768 48
WIRE 1280 96 1280 48
WIRE 336 112 336 -160
WIRE 688 112 336 112
WIRE 928 144 928 -128
WIRE 928 144 816 144
WIRE 608 176 560 176
WIRE 688 176 608 176
WIRE 1280 208 1280 176
WIRE 608 224 608 176
WIRE 768 256 768 224
WIRE 608 336 608 304
FLAG 1248 -160 Out
IOPIN 1248 -160 Out
FLAG 592 -224 InA
IOPIN 592 -224 In
FLAG 560 176 InB
IOPIN 560 176 In
FLAG 624 -16 0
FLAG 208 0 0
FLAG 1280 208 0
FLAG 1056 -48 0
FLAG 112 -160 sel
IOPIN 112 -160 In
FLAG 448 -80 0
FLAG 768 -80 0
FLAG 768 256 0
FLAG 448 -224 VDD
FLAG 768 -288 VDD
FLAG 1056 -272 VDD
FLAG 768 48 VDD
FLAG 1280 48 VDD
FLAG 608 336 0
SYMBOL voltage 624 -144 R0
WINDOW 3 -372 105 Left 2
WINDOW 123 0 0 Left 0
WINDOW 39 0 0 Left 0
SYMATTR Value PULSE(0 1.8 0 10n 10n 5m 10m)
SYMATTR InstName VA
SYMBOL voltage 608 208 R0
WINDOW 3 -369 97 Left 2
WINDOW 123 0 0 Left 0
WINDOW 39 0 0 Left 0
SYMATTR Value PULSE(0 1.8 0 10n 10n 1m 2m)
SYMATTR InstName VB
SYMBOL voltage 1280 80 R0
WINDOW 123 0 0 Left 0
WINDOW 39 0 0 Left 0
SYMATTR InstName VDD
SYMATTR Value 1.8
SYMBOL And_block_20220313 752 -192 R0
WINDOW 0 -42 -71 Bottom 2
SYMATTR InstName X1
SYMBOL And_block_20220313 752 144 R0
WINDOW 0 -45 -68 Bottom 2
SYMATTR InstName X2
SYMBOL OR_block_20220313 1040 -160 R0
WINDOW 0 -45 -73 Bottom 2
SYMATTR InstName X3
SYMBOL NOT_block_20220313 464 -160 R0
WINDOW 0 -79 -48 Bottom 2
SYMATTR InstName X4
SYMBOL voltage 208 -128 R0
WINDOW 3 -369 97 Left 2
WINDOW 123 0 0 Left 0
WINDOW 39 0 0 Left 0
SYMATTR Value PULSE(0 1.8 0 10n 10n 2m 5m)
SYMATTR InstName VB1
TEXT 728 368 Left 2 !.include mylib/CMOS180.lib
TEXT 640 -408 Left 2 ;Mux_20220410.asc
TEXT 728 408 Left 2 !.tran 10m
