Version 4
SHEET 1 1036 680
WIRE 288 -64 112 -64
WIRE 112 -48 112 -64
WIRE 0 0 -96 0
WIRE 64 0 0 0
WIRE 208 0 144 0
WIRE 0 160 0 0
WIRE 288 160 288 -64
WIRE 0 272 0 240
WIRE 112 272 112 48
WIRE 288 272 288 240
FLAG 208 0 Out
IOPIN 208 0 Out
FLAG -96 0 In
IOPIN -96 0 In
FLAG 0 272 0
FLAG 288 272 0
FLAG 112 272 0
SYMBOL voltage 0 144 R0
WINDOW 3 -411 62 Left 2
WINDOW 123 0 0 Left 0
WINDOW 39 0 0 Left 0
SYMATTR Value PULSE(0 1.8 0 10n 10n 1m 2m)
SYMATTR InstName In
SYMBOL voltage 288 144 R0
WINDOW 123 0 0 Left 0
WINDOW 39 0 0 Left 0
SYMATTR InstName VDD
SYMATTR Value 1.8
SYMBOL NOT_block_20220313 128 0 R0
WINDOW 0 -85 -42 Bottom 2
SYMATTR InstName X2
TEXT -24 336 Left 2 !.include mylib/CMOS180.lib
TEXT -72 -112 Left 2 ;NOT_block2_20220313.asc
TEXT -24 376 Left 2 !.tran 10m
