Version 4
SHEET 1 1036 680
WIRE 112 -96 -48 -96
WIRE 304 -96 112 -96
WIRE 592 -96 304 -96
WIRE 592 -32 592 -96
WIRE -48 -16 -48 -96
WIRE 304 -16 304 -96
WIRE -176 32 -256 32
WIRE -96 32 -176 32
WIRE 240 32 -16 32
WIRE 112 48 112 -96
WIRE 464 64 384 64
WIRE -96 96 -256 96
WIRE 64 96 -96 96
WIRE 240 96 144 96
WIRE -176 144 -176 32
WIRE -96 144 -96 96
WIRE -176 320 -176 224
WIRE -96 320 -96 224
WIRE -48 320 -48 80
WIRE 112 320 112 144
WIRE 304 320 304 144
WIRE 592 320 592 48
FLAG 464 64 Out
IOPIN 464 64 Out
FLAG -256 32 InA
IOPIN -256 32 In
FLAG -256 96 InB
IOPIN -256 96 In
FLAG 592 320 0
FLAG -176 320 0
FLAG -96 320 0
FLAG 304 320 0
FLAG -48 320 0
FLAG 112 320 0
SYMBOL voltage 592 -48 R0
WINDOW 3 39 91 Left 2
WINDOW 123 0 0 Left 0
WINDOW 39 0 0 Left 0
SYMATTR Value 1.8
SYMATTR InstName VDD
SYMBOL voltage -176 128 R0
WINDOW 3 -323 298 Left 2
WINDOW 123 0 0 Left 0
WINDOW 39 0 0 Left 0
WINDOW 0 -43 14 Left 2
SYMATTR Value PULSE(0 1.8 0 10n 10n 5m 10m)
SYMATTR InstName VA
SYMBOL voltage -96 128 R0
WINDOW 3 5 300 Left 2
WINDOW 123 0 0 Left 0
WINDOW 39 0 0 Left 0
WINDOW 0 -50 16 Left 2
SYMATTR Value PULSE(0 1.8 0 10n 10n 1m 2m)
SYMATTR InstName VB
SYMBOL Nand_block_20220305 304 80 R0
WINDOW 0 -34 -89 Bottom 2
SYMATTR InstName X1
SYMBOL NOT_block_20220313 -32 32 R0
WINDOW 0 -60 -48 Bottom 2
SYMATTR InstName X2
SYMBOL NOT_block_20220313 128 96 R0
WINDOW 0 -38 -36 Bottom 2
SYMATTR InstName X3
TEXT -80 480 Left 2 !.include mylib/CMOS180.lib
TEXT 32 -160 Left 2 ;OR_20220313.asc
TEXT -80 512 Left 2 !.tran 10m
