Version 4
SHEET 1 1036 680
WIRE 288 -64 112 -64
WIRE 112 -48 112 -64
WIRE -80 0 -96 0
WIRE 48 0 -80 0
WIRE 208 32 160 32
WIRE 0 64 -96 64
WIRE 48 64 0 64
WIRE -80 160 -80 0
WIRE 0 160 0 64
WIRE 288 160 288 -64
WIRE -80 272 -80 240
WIRE 0 272 0 240
WIRE 112 272 112 112
WIRE 288 272 288 240
FLAG 208 32 Out
IOPIN 208 32 Out
FLAG -96 0 InA
IOPIN -96 0 In
FLAG -96 64 InB
IOPIN -96 64 In
FLAG -80 272 0
FLAG 0 272 0
FLAG 288 272 0
FLAG 112 272 0
SYMBOL voltage -80 144 R0
WINDOW 3 -396 27 Left 2
WINDOW 123 0 0 Left 0
WINDOW 39 0 0 Left 0
SYMATTR Value PULSE(0 1.8 0 10n 10n 5m 10m)
SYMATTR InstName VA
SYMBOL voltage 0 144 R0
WINDOW 3 -340 179 Left 2
WINDOW 123 0 0 Left 0
WINDOW 39 0 0 Left 0
SYMATTR Value PULSE(0 1.8 0 10n 10n 1m 2m)
SYMATTR InstName VB
SYMBOL voltage 288 144 R0
WINDOW 123 0 0 Left 0
WINDOW 39 0 0 Left 0
SYMATTR InstName VDD
SYMATTR Value 1.8
SYMBOL OR_block_20220313 96 32 R0
WINDOW 0 -26 -71 Bottom 2
SYMATTR InstName X1
TEXT -32 392 Left 2 !.include mylib/CMOS180.lib
TEXT -72 -96 Left 2 ;OR_block2_20220313.asc
TEXT -32 432 Left 2 !.tran 10m
