Version 4
SHEET 1 1036 680
WIRE 336 -96 48 -96
WIRE 48 -16 48 -96
WIRE -176 32 -256 32
WIRE 0 32 -176 32
WIRE 208 64 112 64
WIRE -80 96 -256 96
WIRE 0 96 -80 96
WIRE -176 144 -176 32
WIRE -80 144 -80 96
WIRE 336 160 336 -96
WIRE -176 368 -176 224
WIRE -80 368 -80 224
WIRE 48 368 48 144
WIRE 336 368 336 240
FLAG 208 64 Out
IOPIN 208 64 Out
FLAG -256 32 InA
IOPIN -256 32 In
FLAG -256 96 InB
IOPIN -256 96 In
FLAG 336 368 0
FLAG -176 368 0
FLAG -80 368 0
FLAG 48 368 0
SYMBOL voltage 336 144 R0
WINDOW 3 39 91 Left 2
WINDOW 123 0 0 Left 0
WINDOW 39 0 0 Left 0
SYMATTR Value 1.8
SYMATTR InstName VDD
SYMBOL voltage -176 128 R0
WINDOW 3 -323 298 Left 2
WINDOW 123 0 0 Left 0
WINDOW 39 0 0 Left 0
SYMATTR Value PULSE(0 1.8 0 10n 10n 5m 10m)
SYMATTR InstName VA
SYMBOL voltage -80 128 R0
WINDOW 3 5 300 Left 2
WINDOW 123 0 0 Left 0
WINDOW 39 0 0 Left 0
SYMATTR Value PULSE(0 1.8 0 10n 10n 1m 2m)
SYMATTR InstName VB
SYMBOL Xor_block_20220313 48 64 R0
WINDOW 0 -34 -76 Bottom 2
SYMATTR InstName X1
TEXT -80 480 Left 2 !.include mylib/CMOS180.lib
TEXT -88 -136 Left 2 ;Xor_block2_20220313.asc
TEXT -80 512 Left 2 !.tran 10m
