Version 4
SHEET 1 1036 680
WIRE 224 -96 48 -96
WIRE 400 -96 224 -96
WIRE 608 -96 400 -96
WIRE 880 -96 608 -96
WIRE 880 -32 880 -96
WIRE 48 -16 48 -96
WIRE 400 -16 400 -96
WIRE 608 16 608 -96
WIRE -176 32 -256 32
WIRE 0 32 -176 32
WIRE 112 32 80 32
WIRE 336 32 112 32
WIRE 544 64 480 64
WIRE -80 96 -256 96
WIRE 0 96 -80 96
WIRE 336 96 0 96
WIRE 768 96 688 96
WIRE 544 128 480 128
WIRE -176 144 -176 32
WIRE -80 144 -80 96
WIRE 224 144 224 -96
WIRE 112 192 112 32
WIRE 160 192 112 192
WIRE 480 224 480 128
WIRE 480 224 272 224
WIRE 0 256 0 96
WIRE 160 256 0 256
WIRE 880 320 880 48
WIRE -176 368 -176 224
WIRE -80 368 -80 224
WIRE 48 368 48 80
WIRE 224 368 224 304
WIRE 224 368 48 368
WIRE 400 368 400 144
WIRE 400 368 224 368
WIRE 608 368 608 176
WIRE 608 368 400 368
WIRE 400 416 400 368
FLAG 768 96 Out
IOPIN 768 96 Out
FLAG -256 32 InA
IOPIN -256 32 In
FLAG -256 96 InB
IOPIN -256 96 In
FLAG 880 320 0
FLAG -176 368 0
FLAG -80 368 0
FLAG 400 416 0
SYMBOL voltage 880 -48 R0
WINDOW 3 39 91 Left 2
WINDOW 123 0 0 Left 0
WINDOW 39 0 0 Left 0
SYMATTR Value 1.8
SYMATTR InstName VDD
SYMBOL voltage -176 128 R0
WINDOW 3 -323 298 Left 2
WINDOW 123 0 0 Left 0
WINDOW 39 0 0 Left 0
SYMATTR Value PULSE(0 1.8 0 10n 10n 5m 10m)
SYMATTR InstName VA
SYMBOL voltage -80 128 R0
WINDOW 3 5 300 Left 2
WINDOW 123 0 0 Left 0
WINDOW 39 0 0 Left 0
SYMATTR Value PULSE(0 1.8 0 10n 10n 1m 2m)
SYMATTR InstName VB
SYMBOL NOT_block_20220313 64 32 R0
SYMATTR InstName X1
SYMBOL OR_block_20220313 208 224 R0
SYMATTR InstName X2
SYMBOL Nand_block_20220305 400 80 R0
SYMATTR InstName X3
SYMBOL Nand_block_20220305 608 112 R0
SYMATTR InstName X4
TEXT -80 480 Left 2 !.include mylib/CMOS180.lib
TEXT -8 -128 Left 2 ;Xor_20220313.asc
TEXT -80 512 Left 2 !.tran 10m
